Version 4
SHEET 1 2800 680
WIRE 176 0 144 0
WIRE 288 0 256 0
WIRE 96 16 96 -16
WIRE 320 16 320 -16
WIRE 208 128 208 80
WIRE 96 144 96 96
WIRE 144 144 144 0
WIRE 144 144 96 144
WIRE 176 144 144 144
WIRE 288 160 288 0
WIRE 288 160 240 160
WIRE 320 160 320 96
WIRE 320 160 288 160
WIRE 176 176 -16 176
WIRE 208 208 208 192
WIRE 288 208 208 208
WIRE -16 224 -16 176
WIRE 96 224 96 144
WIRE 208 224 208 208
WIRE -16 336 -16 304
WIRE 96 336 96 304
WIRE 208 336 208 304
FLAG 208 80 0
FLAG 208 336 0
FLAG 96 336 0
FLAG 288 208 VCC
FLAG 96 -16 VCC
FLAG 320 -16 VCC
FLAG -16 336 0
SYMBOL Opamps\\OP07 208 224 M180
SYMATTR InstName U1
SYMBOL res 80 0 R0
SYMATTR InstName R1
SYMATTR Value 33k
SYMBOL res 80 208 R0
SYMATTR InstName R2
SYMATTR Value 56k
SYMBOL voltage 208 208 R0
WINDOW 123 0 0 Left 2
WINDOW 39 0 0 Left 2
SYMATTR InstName V1
SYMATTR Value 5
SYMBOL res 304 0 R0
SYMATTR InstName R3
SYMATTR Value 1k
SYMBOL voltage -16 208 R0
WINDOW 3 24 96 Invisible 2
WINDOW 123 0 0 Left 2
WINDOW 39 0 0 Left 2
SYMATTR InstName V2
SYMATTR Value PWL(10ms 2.5 20ms 3.1 30ms 3.2 40ms 3.3 50ms 3.4 60ms 3.5 70ms 3.6 80ms 3.6 90ms 3.6 100ms 3.6 110ms 3.5 120ms 3.4 130ms 3.3 140ms 3.2 150ms 3.1 160ms 3.0 170ms 2.9 180ms 2.8 190ms 2.7 200ms 2.6 210ms 2.5)
SYMBOL res 272 -16 R90
WINDOW 0 0 56 VBottom 2
WINDOW 3 32 56 VTop 2
SYMATTR InstName R4
SYMATTR Value 75k
TEXT -274 264 Left 2 !.tran 0 200m 1m 1m
